/*--------------------------------*- C++ -*----------------------------------*\
| =========                 |                                                 |
| \\      /  F ield         | OpenFOAM: The Open Source CFD Toolbox           |
|  \\    /   O peration     | Version:  2.2.1                                 |
|   \\  /    A nd           | Web:      www.OpenFOAM.org                      |
|    \\/     M anipulation  |                                                 |
\*---------------------------------------------------------------------------*/
FoamFile
{
    version     2.0;
    format      ascii;
    class       dictionary;
    location    "constant";
    object      DVMProperties;
}
// * * * * * * * * * * * * * * * * * * * * * * * * * * * * * * * * * * * * * //

fvDVMparas
{
    xiMax       xiMax [0 1 -1 0 0 0 0]    4;
    xiMin       xiMin [0 1 -1 0 0 0 0]   -4;
    nDV               53;       // Number of discrete velocity, shoud be 4*Z + 1 if using compound N-C quardrature
}

gasProperties
{
    R            R [0 2 -2 -1 0 0 0] 0.5; // Specific gas constant
    omega        0.74;              // VHS viscosity ~ Temperature index
    Tref         Tref [0 0 0 1 0 0 0] 1.0; // Reference temperature
    muRef        muRef [1 -1 -1 0 0 0 0] 0.051311619479493614;
    Pr           0.666666666666667; // Prantl number
    KInner	 2;
    omega0	 0.2354;
    omega1	 0.3049;
    Z		 3.5;
    delta	 0.64516129;
}
