
/*--------------------------------*- C++ -*----------------------------------*\
| =========                 |                                                 |
| \\      /  F ield         | OpenFOAM: The Open Source CFD Toolbox           |
|  \\    /   O peration     | Version:  2.2.1                                 |
|   \\  /    A nd           | Web:      www.OpenFOAM.org                      |
|    \\/     M anipulation  |                                                 |
\*---------------------------------------------------------------------------*/
FoamFile
{
    version     2.0;
    format      ascii;
    class       dictionary;
    location    "constant";
    object      weights;
}
// * * * * * * * * * * * * * * * * * * * * * * * * * * * * * * * * * * * * * //
53
(
 4.786324786324787e-02
 2.188034188034188e-01
 8.205128205128205e-02
 2.188034188034188e-01
 9.572649572649573e-02
 2.188034188034188e-01
 8.205128205128205e-02
 2.188034188034188e-01
 9.572649572649573e-02
 2.188034188034188e-01
 8.205128205128205e-02
 2.188034188034188e-01
 9.572649572649573e-02
 2.188034188034188e-01
 8.205128205128205e-02
 2.188034188034188e-01
 9.572649572649573e-02
 2.188034188034188e-01
 8.205128205128205e-02
 2.188034188034188e-01
 9.572649572649573e-02
 2.188034188034188e-01
 8.205128205128205e-02
 2.188034188034188e-01
 9.572649572649573e-02
 2.188034188034188e-01
 8.205128205128205e-02
 2.188034188034188e-01
 9.572649572649573e-02
 2.188034188034188e-01
 8.205128205128205e-02
 2.188034188034188e-01
 9.572649572649573e-02
 2.188034188034188e-01
 8.205128205128205e-02
 2.188034188034188e-01
 9.572649572649573e-02
 2.188034188034188e-01
 8.205128205128205e-02
 2.188034188034188e-01
 9.572649572649573e-02
 2.188034188034188e-01
 8.205128205128205e-02
 2.188034188034188e-01
 9.572649572649573e-02
 2.188034188034188e-01
 8.205128205128205e-02
 2.188034188034188e-01
 9.572649572649573e-02
 2.188034188034188e-01
 8.205128205128205e-02
 2.188034188034188e-01
 4.786324786324787e-02
);