
/*--------------------------------*- C++ -*----------------------------------*\
| =========                 |                                                 |
| \\      /  F ield         | OpenFOAM: The Open Source CFD Toolbox           |
|  \\    /   O peration     | Version:  2.2.1                                 |
|   \\  /    A nd           | Web:      www.OpenFOAM.org                      |
|    \\/     M anipulation  |                                                 |
\*---------------------------------------------------------------------------*/
FoamFile
{
    version     2.0;
    format      ascii;
    class       dictionary;
    location    "constant";
    object      Xis;
}
// * * * * * * * * * * * * * * * * * * * * * * * * * * * * * * * * * * * * * //
53
(
-4.000000000000000e+00
-3.846153846153846e+00
-3.692307692307693e+00
-3.538461538461538e+00
-3.384615384615385e+00
-3.230769230769231e+00
-3.076923076923077e+00
-2.923076923076923e+00
-2.769230769230769e+00
-2.615384615384615e+00
-2.461538461538462e+00
-2.307692307692307e+00
-2.153846153846154e+00
-2.000000000000000e+00
-1.846153846153846e+00
-1.692307692307692e+00
-1.538461538461538e+00
-1.384615384615385e+00
-1.230769230769231e+00
-1.076923076923077e+00
-9.230769230769229e-01
-7.692307692307692e-01
-6.153846153846150e-01
-4.615384615384612e-01
-3.076923076923075e-01
-1.538461538461537e-01
 0.000000000000000e+00
 1.538461538461542e-01
 3.076923076923084e-01
 4.615384615384617e-01
 6.153846153846159e-01
 7.692307692307692e-01
 9.230769230769234e-01
 1.076923076923078e+00
 1.230769230769231e+00
 1.384615384615385e+00
 1.538461538461538e+00
 1.692307692307693e+00
 1.846153846153847e+00
 2.000000000000000e+00
 2.153846153846154e+00
 2.307692307692308e+00
 2.461538461538462e+00
 2.615384615384616e+00
 2.769230769230770e+00
 2.923076923076923e+00
 3.076923076923078e+00
 3.230769230769231e+00
 3.384615384615385e+00
 3.538461538461539e+00
 3.692307692307693e+00
 3.846153846153847e+00
 4.000000000000000e+00
);